LAMMPS (19 Sep 2019)
# Define Potential

pair_style lj/charmm/coul/long 7 8
#

# Define System

units            real
atom_style       full
boundary         p p p

bond_style       harmonic
angle_style      charmm
dihedral_style   charmm
improper_style   harmonic

pair_modify tail yes
pair_modify mix  arithmetic

read_data       CGENFF.TOP
  orthogonal box = (0 0 0) to (80 160 80)
  reading atoms ...
  56760 atoms
  scanning bonds ...
  scanning angles ...
  scanning dihedrals ...
  reading bonds ...
  47142 bonds
  reading angles ...
  67431 angles
  reading dihedrals ...
  186570 dihedrals
#

# Set Variables

variable    T   equal 300
variable    P   equal 1
variable incX   equal lx
variable incY   equal ly
variable incZ   equal lz
variable newX   equal f_averageX+v_incX
variable newY   equal f_averageY+v_incY
variable newZ   equal f_averageZ+v_incZ
variable finalX equal f_averageX
variable finalY equal f_averageY
variable finalZ equal f_averageZ
variable area   equal v_finalX*v_finalY
variable pn     equal f_averagezz
variable pt     equal ((f_averagexx+f_averageyy)/2)
variable averageift equal f_aveift
variable ift    equal (0.5*lz*(pzz-0.5*(pxx+pyy))/3)/vol

#Define simulation parameters

kspace_style pppm 0.0001
neighbor       2 bin
neigh_modify every 2 delay 10 check yes
timestep       0.5

group dtab type 257 258 318 321 322 323 362 395
32529 atoms in group dtab

minimize 1.0e-4 1.0e-6 10000 50000                  # <- minimizar as configuração (opcional), usado somente quando partimos de uma
PPPM initialization ...
  G vector (1/distance) = 0.304947
  grid = 45 72 45
  stencil order = 5
  estimated absolute RMS force accuracy = 0.0318628
  estimated relative force accuracy = 9.59537e-05
  3d grid and FFT values/proc = 14297 6480
  update every 1 steps, delay 0 steps, check yes
Step Temp E_pair E_mol TotEng Press
0            0    72441.631    17222.917    89664.548     32916.93
Loop time of 70.7025 on 28 procs for 483 steps with 56760 atoms

Minimization stats:
  Stopping criterion = energy tolerance
  Energy initial, next-to-last, final =
  Force two-norm initial, final = 19908.2 129.78
  Force max component initial, final = 1857.72 32.3954
  Final line search alpha, max atom move = 0.00257526 0.0834266
  Iterations, force evaluations = 483 826

thermo 100
thermo_style custom step temp etotal press vol evdwl ecoul

# Equilibration
fix run_nvt all nvt temp $T $T 50
fix run_nvt all nvt temp 300 $T 50
fix run_nvt all nvt temp 300 300 50
dump positions all custom 400 npositions.lammpstrj id type mol x y z q
dump_modify positions sort id

run 1000
PPPM initialization ...
  G vector (1/distance) = 0.304947
  grid = 45 72 45
  stencil order = 5
  estimated absolute RMS force accuracy = 0.0318628
  estimated relative force accuracy = 9.59537e-05
  3d grid and FFT values/proc = 14297 6480
Step Temp TotEng Press Volume E_vdwl E_coul
483            0   -125129.63   -688.62629      1024000    2742.2863    365346.52
Averages over the last 6 of 12 rows, steps 1000 to 1483:
Temp TotEng Press Volume E_vdwl E_coul
12.0041 -123393 -536.306 1.024e+06 2679.21 365104
Loop time of 63.4703 on 28 procs for 1000 steps with 56760 atoms

unfix run_nvt

# Thermalization

fix run_npt all npt temp 300 300 50 iso 1 1 500
run 20000
PPPM initialization ...
  G vector (1/distance) = 0.304947
  grid = 45 72 45
  stencil order = 5
  estimated absolute RMS force accuracy = 0.0318628
  estimated relative force accuracy = 9.59537e-05
  3d grid and FFT values/proc = 14297 6480
Step Temp TotEng Press Volume E_vdwl E_coul
1483    20.197389    -121756.1   -329.17407      1024000    2757.3583    365235.04
Averages over the last 101 of 202 rows, steps 11500 to 21483:
Temp TotEng Press Volume E_vdwl E_coul
300.037 -863.612 67.2053 2.02657e+06 396.781 426910
Loop time of 1089.26 on 28 procs for 20000 steps with 56760 atoms

unfix run_npt
#

write_data npt-therma.top
PPPM initialization ...
  G vector (1/distance) = 0.290134
  grid = 48 90 48
  stencil order = 5
  estimated absolute RMS force accuracy = 0.0383397
  estimated relative force accuracy = 0.000115459
  3d grid and FFT values/proc = 15979 8640

compute stens all stress/atom NULL

compute profile1 all chunk/atom bin/1d y center 0.1

reset_timestep 0

fix run_npt all npt temp 300 300 50 z 1 1 500

fix stress_profile all ave/chunk 10 20 200 profile1 c_stens[1] c_stens[2] c_stens[3] file stress_profile.dat

dump positions2 all custom 40 positions2.lammpstrj id type mol x y z q
dump_modify positions2 sort id

fix averageX all ave/time 10 40 400 v_incX
fix averageY all ave/time 10 40 400 v_incY
fix averageZ all ave/time 10 40 400 v_incZ

run 4000
PPPM initialization ...
  G vector (1/distance) = 0.290134
  grid = 48 90 48
  stencil order = 5
  estimated absolute RMS force accuracy = 0.0383397
  estimated relative force accuracy = 0.000115459
  3d grid and FFT values/proc = 15979 8640
Step Temp TotEng Press Volume E_vdwl E_coul
0    300.85385    2207.3179    74.370364    2186254.2    659.28075    404250.88
Averages over the last 21 of 41 rows, steps 2000 to 4000:
Temp TotEng Press Volume E_vdwl E_coul
299.543 3139.32 51.8946 2.26125e+06 443.8 405238
Loop time of 215.945 on 28 procs for 4000 steps with 56760 atoms

# Print Average Lattices

print "========================="
=========================
print "         Average         "
         Average
 LX = 103.012569966302
 LY = 206.025139932604
 LZ = 107.492518298774
 Area = 21223.1791421245
print "========================="
=========================
#

unfix run_npt
unfix stress_profile
unfix averageX
unfix averageY
unfix averageZ

write_data npt.top
PPPM initialization ...
  G vector (1/distance) = 0.290053
  grid = 48 90 50
  stencil order = 5
  estimated absolute RMS force accuracy = 0.0376115
  estimated relative force accuracy = 0.000113266
  3d grid and FFT values/proc = 16530 8640
